poly(CAP-Trimer-polymer)
                    3D
 Schrodinger Suite 2024-2.
618642  0  0  1  0            999 V2000
  -21.4221   -4.6305  -28.2443 H   0  0  0  0  0  0
  -11.9574   -1.9616  -19.3582 C   0  0  2  0  0  0
  -13.3507   -1.9830  -20.0398 C   0  0  2  0  0  0
  -13.4926   -3.2350  -20.9366 C   0  0  1  0  0  0
  -13.1593   -4.3843  -20.2225 O   0  0  0  0  0  0
  -11.8117   -4.4616  -19.7711 C   0  0  1  0  0  0
  -11.6002   -3.3267  -18.7507 C   0  0  1  0  0  0
  -11.6219   -5.8389  -19.0992 C   0  0  0  0  0  0
  -10.2369   -3.2833  -18.3656 O   0  0  0  0  0  0
  -11.6269   -6.9281  -20.0131 O   0  0  0  0  0  0
  -11.9851   -1.0863  -18.2280 O   0  0  0  0  0  0
  -13.4580   -0.8270  -20.8565 O   0  0  0  0  0  0
  -11.7966    0.2301  -18.3728 C   0  0  0  0  0  0
  -10.5202   -7.2271  -20.7060 C   0  0  0  0  0  0
   -9.4858   -6.5630  -20.7285 O   0  0  0  0  0  0
  -10.6534   -8.5118  -21.5085 C   0  0  0  0  0  0
  -11.6760    0.8148  -19.4464 O   0  0  0  0  0  0
  -11.7799    0.9743  -17.0477 C   0  0  0  0  0  0
  -11.1874   -1.6744  -20.0773 H   0  0  0  0  0  0
  -14.1414   -2.0043  -19.2876 H   0  0  0  0  0  0
  -12.8458   -3.1521  -21.8135 H   0  0  0  0  0  0
  -11.1255   -4.3471  -20.6123 H   0  0  0  0  0  0
  -12.2213   -3.5187  -17.8732 H   0  0  0  0  0  0
  -10.6871   -5.8558  -18.5363 H   0  0  0  0  0  0
  -12.4155   -6.0015  -18.3701 H   0  0  0  0  0  0
  -12.9781   -0.1130  -20.4423 H   0  0  0  0  0  0
  -11.7026   -8.7674  -21.6568 H   0  0  0  0  0  0
  -10.1845   -8.3952  -22.4846 H   0  0  0  0  0  0
  -10.1655   -9.3328  -20.9847 H   0  0  0  0  0  0
  -12.4363    0.4899  -16.3248 H   0  0  0  0  0  0
  -10.7690    0.9981  -16.6417 H   0  0  0  0  0  0
  -12.1198    2.0004  -17.1887 H   0  0  0  0  0  0
  -14.9153   -4.8188  -23.1817 C   0  0  2  0  0  0
  -15.7385   -5.1332  -24.4494 C   0  0  2  0  0  0
  -17.2053   -4.7399  -24.2249 C   0  0  1  0  0  0
  -17.2474   -3.3771  -23.9576 O   0  0  0  0  0  0
  -16.6791   -3.0156  -22.7020 C   0  0  1  0  0  0
  -15.1792   -3.3901  -22.6553 C   0  0  1  0  0  0
  -16.8639   -1.4976  -22.5093 C   0  0  0  0  0  0
  -14.8414   -3.3136  -21.2716 O   0  0  0  0  0  0
  -18.1281   -1.1699  -21.9499 O   0  0  0  0  0  0
  -13.5356   -4.8571  -23.5417 O   0  0  0  0  0  0
  -15.7039   -6.5363  -24.6917 O   0  0  0  0  0  0
  -15.2191   -7.0086  -25.8462 C   0  0  0  0  0  0
  -12.8199   -5.9760  -23.3970 C   0  0  0  0  0  0
  -19.1893   -0.8973  -22.7350 C   0  0  0  0  0  0
  -19.1399   -0.9774  -23.9634 O   0  0  0  0  0  0
  -20.4000   -0.4729  -21.9356 C   0  0  0  0  0  0
  -20.2456   -0.2204  -20.5450 C   0  0  0  0  0  0
  -21.3288    0.1831  -19.7425 C   0  0  0  0  0  0
  -22.6022    0.3408  -20.3099 C   0  0  0  0  0  0
  -22.7852    0.0940  -21.6806 C   0  0  0  0  0  0
  -21.7049   -0.3033  -22.4994 C   0  0  0  0  0  0
  -22.0064   -0.5486  -23.9453 C   0  0  0  0  0  0
  -22.5397   -1.5858  -24.3275 O   0  0  0  0  0  0
  -21.5540    0.4255  -24.7743 O   0  0  0  0  0  0
  -14.7775   -6.3348  -26.7744 O   0  0  0  0  0  0
  -15.2523   -8.5265  -25.9129 C   0  0  0  0  0  0
  -13.2322   -7.0455  -22.9553 O   0  0  0  0  0  0
  -11.3849   -5.8057  -23.8675 C   0  0  0  0  0  0
  -15.1579   -5.5357  -22.3951 H   0  0  0  0  0  0
  -15.3665   -4.5440  -25.2894 H   0  0  0  0  0  0
  -17.6312   -5.3096  -23.3943 H   0  0  0  0  0  0
  -17.2012   -3.5463  -21.9034 H   0  0  0  0  0  0
  -14.6235   -2.6575  -23.2450 H   0  0  0  0  0  0
  -16.1226   -1.1384  -21.7952 H   0  0  0  0  0  0
  -16.6734   -0.9557  -23.4370 H   0  0  0  0  0  0
  -19.2848   -0.3246  -20.0621 H   0  0  0  0  0  0
  -21.1795    0.3734  -18.6894 H   0  0  0  0  0  0
  -23.4363    0.6515  -19.6969 H   0  0  0  0  0  0
  -23.7687    0.2152  -22.1134 H   0  0  0  0  0  0
  -21.3415    0.0291  -25.6163 H   0  0  0  0  0  0
  -14.4815   -8.9442  -25.2656 H   0  0  0  0  0  0
  -16.2214   -8.9054  -25.5898 H   0  0  0  0  0  0
  -15.0720   -8.8653  -26.9329 H   0  0  0  0  0  0
  -11.3487   -5.1803  -24.7592 H   0  0  0  0  0  0
  -10.7841   -5.3393  -23.0875 H   0  0  0  0  0  0
  -10.9503   -6.7751  -24.1094 H   0  0  0  0  0  0
  -20.1468   -4.1236  -25.0990 C   0  0  2  0  0  0
  -20.8286   -3.6463  -26.3916 C   0  0  2  0  0  0
  -21.5020   -4.7989  -27.1704 C   0  0  1  0  0  0
  -20.9935   -6.0949  -26.8476 O   0  0  0  0  0  0
  -19.5806   -6.1099  -26.6410 C   0  0  1  0  0  0
  -19.2486   -5.3695  -25.3251 C   0  0  1  0  0  0
  -19.0736   -7.5571  -26.6005 C   0  0  0  0  0  0
  -17.8722   -5.0125  -25.4175 O   0  0  0  0  0  0
  -19.4332   -8.1880  -27.8104 O   0  0  0  0  0  0
  -21.1656   -4.3691  -24.1344 O   0  0  0  0  0  0
  -19.8514   -3.0141  -27.2125 O   0  0  0  0  0  0
  -19.8435   -1.6836  -27.3709 C   0  0  0  0  0  0
  -20.8970   -4.3073  -22.8257 C   0  0  0  0  0  0
  -19.1416   -9.4797  -28.0051 C   0  0  0  0  0  0
  -18.3196  -10.1053  -27.3346 O   0  0  0  0  0  0
  -19.8896  -10.0532  -29.1619 C   0  0  0  0  0  0
  -19.1796  -10.8879  -30.0546 C   0  0  0  0  0  0
  -19.8100  -11.4211  -31.1948 C   0  0  0  0  0  0
  -21.1613  -11.1287  -31.4525 C   0  0  0  0  0  0
  -21.8890  -10.3209  -30.5581 C   0  0  0  0  0  0
  -21.2728   -9.7937  -29.4024 C   0  0  0  0  0  0
  -22.1124   -9.0083  -28.4367 C   0  0  0  0  0  0
  -22.2975   -9.3767  -27.2810 O   0  0  0  0  0  0
  -22.3877   -7.7506  -28.8620 O   0  0  0  0  0  0
  -20.6841   -0.8922  -26.9411 O   0  0  0  0  0  0
  -18.6500   -1.2067  -28.1807 C   0  0  0  0  0  0
  -19.7804   -4.1914  -22.3242 O   0  0  0  0  0  0
  -22.1454   -4.4217  -21.9683 C   0  0  0  0  0  0
  -19.5418   -3.3014  -24.7234 H   0  0  0  0  0  0
  -21.6093   -2.9307  -26.1405 H   0  0  0  0  0  0
  -19.1029   -5.6066  -27.4844 H   0  0  0  0  0  0
  -19.3866   -6.0713  -24.5008 H   0  0  0  0  0  0
  -17.9911   -7.5759  -26.4774 H   0  0  0  0  0  0
  -19.5147   -8.0952  -25.7601 H   0  0  0  0  0  0
  -18.1368  -11.1087  -29.8719 H   0  0  0  0  0  0
  -19.2535  -12.0502  -31.8747 H   0  0  0  0  0  0
  -21.6443  -11.5355  -32.3294 H   0  0  0  0  0  0
  -22.9337  -10.1201  -30.7498 H   0  0  0  0  0  0
  -22.3062   -7.1890  -28.1042 H   0  0  0  0  0  0
  -17.7424   -1.2809  -27.5821 H   0  0  0  0  0  0
  -18.5290   -1.8154  -29.0764 H   0  0  0  0  0  0
  -18.7850   -0.1677  -28.4802 H   0  0  0  0  0  0
  -22.6377   -5.3781  -22.1404 H   0  0  0  0  0  0
  -21.8885   -4.3439  -20.9121 H   0  0  0  0  0  0
  -22.8404   -3.6190  -22.2152 H   0  0  0  0  0  0
  -22.8811   -4.8144  -26.8775 O   0  0  0  0  0  0
   -2.3539   -3.2111   -7.4789 C   0  0  2  0  0  0
   -2.9878   -2.7360   -8.8127 C   0  0  2  0  0  0
   -4.4299   -3.2784   -8.9472 C   0  0  1  0  0  0
   -5.1663   -2.9900   -7.7997 O   0  0  0  0  0  0
   -4.7030   -3.5988   -6.5996 C   0  0  1  0  0  0
   -3.3104   -3.0152   -6.2928 C   0  0  1  0  0  0
   -5.7017   -3.2403   -5.4777 C   0  0  0  0  0  0
   -2.7522   -3.6832   -5.1744 O   0  0  0  0  0  0
   -6.9600   -3.8907   -5.6012 O   0  0  0  0  0  0
   -1.2365   -2.3813   -7.1517 O   0  0  0  0  0  0
   -2.2079   -3.2550   -9.8791 O   0  0  0  0  0  0
   -0.0264   -2.6220   -7.6686 C   0  0  0  0  0  0
   -7.1044   -5.1561   -5.1860 C   0  0  0  0  0  0
   -6.1992   -5.8924   -4.7988 O   0  0  0  0  0  0
   -8.5461   -5.6364   -5.2418 C   0  0  0  0  0  0
    0.2271   -3.4818   -8.5086 O   0  0  0  0  0  0
    1.0421   -1.6819   -7.1349 C   0  0  0  0  0  0
   -2.0736   -4.2644   -7.5458 H   0  0  0  0  0  0
   -3.0230   -1.6457   -8.8494 H   0  0  0  0  0  0
   -4.4180   -4.3591   -9.1088 H   0  0  0  0  0  0
   -4.6403   -4.6813   -6.7262 H   0  0  0  0  0  0
   -3.4136   -1.9514   -6.0684 H   0  0  0  0  0  0
   -5.2739   -3.4829   -4.5035 H   0  0  0  0  0  0
   -5.8729   -2.1641   -5.4720 H   0  0  0  0  0  0
   -1.2950   -3.2924   -9.6018 H   0  0  0  0  0  0
   -9.1343   -5.0147   -5.9167 H   0  0  0  0  0  0
   -8.5856   -6.6654   -5.5967 H   0  0  0  0  0  0
   -8.9937   -5.5938   -4.2497 H   0  0  0  0  0  0
    0.6175   -0.7039   -6.9088 H   0  0  0  0  0  0
    1.4836   -2.0905   -6.2263 H   0  0  0  0  0  0
    1.8320   -1.5523   -7.8748 H   0  0  0  0  0  0
   -6.9492   -3.9028  -10.6313 C   0  0  2  0  0  0
   -7.8507   -4.2440  -11.8373 C   0  0  2  0  0  0
   -7.8648   -3.0669  -12.8225 C   0  0  1  0  0  0
   -6.5608   -2.8510  -13.2508 O   0  0  0  0  0  0
   -5.6960   -2.3418  -12.2393 C   0  0  1  0  0  0
   -5.5757   -3.3466  -11.0696 C   0  0  1  0  0  0
   -4.3153   -2.0814  -12.8729 C   0  0  0  0  0  0
   -5.0011   -2.5841  -10.0099 O   0  0  0  0  0  0
   -4.2308   -0.8032  -13.4873 O   0  0  0  0  0  0
   -6.6780   -5.1187   -9.9365 O   0  0  0  0  0  0
   -9.1862   -4.4366  -11.3813 O   0  0  0  0  0  0
   -9.8083   -5.6025  -11.5922 C   0  0  0  0  0  0
   -7.4392   -5.5059   -8.9090 C   0  0  0  0  0  0
   -4.5287   -0.6343  -14.7910 C   0  0  0  0  0  0
   -4.9459   -1.5532  -15.4976 O   0  0  0  0  0  0
   -4.2703    0.7795  -15.2596 C   0  0  0  0  0  0
   -3.5885    1.6733  -14.3893 C   0  0  0  0  0  0
   -3.3101    3.0009  -14.7637 C   0  0  0  0  0  0
   -3.7121    3.4744  -16.0217 C   0  0  0  0  0  0
   -4.3915    2.6147  -16.9007 C   0  0  0  0  0  0
   -4.6698    1.2773  -16.5411 C   0  0  0  0  0  0
   -5.4051    0.4456  -17.5457 C   0  0  0  0  0  0
   -6.6183    0.5445  -17.7030 O   0  0  0  0  0  0
   -4.6273   -0.4696  -18.1767 O   0  0  0  0  0  0
   -9.3356   -6.5804  -12.1673 O   0  0  0  0  0  0
  -11.2170   -5.6211  -11.0223 C   0  0  0  0  0  0
   -8.4049   -4.8971   -8.4553 O   0  0  0  0  0  0
   -6.9943   -6.8406   -8.3346 C   0  0  0  0  0  0
   -7.4431   -3.1647   -9.9966 H   0  0  0  0  0  0
   -7.4499   -5.1098  -12.3674 H   0  0  0  0  0  0
   -8.2667   -2.1707  -12.3419 H   0  0  0  0  0  0
   -6.1005   -1.4021  -11.8582 H   0  0  0  0  0  0
   -4.9167   -4.1600  -11.3817 H   0  0  0  0  0  0
   -3.5594   -2.0824  -12.0875 H   0  0  0  0  0  0
   -4.0371   -2.8843  -13.5575 H   0  0  0  0  0  0
   -3.2557    1.3555  -13.4118 H   0  0  0  0  0  0
   -2.7850    3.6554  -14.0829 H   0  0  0  0  0  0
   -3.4992    4.4930  -16.3131 H   0  0  0  0  0  0
   -4.7009    2.9842  -17.8687 H   0  0  0  0  0  0
   -5.1703   -1.2220  -18.4014 H   0  0  0  0  0  0
  -11.1777   -5.6873   -9.9353 H   0  0  0  0  0  0
  -11.7558   -4.7146  -11.2968 H   0  0  0  0  0  0
  -11.7693   -6.4796  -11.4041 H   0  0  0  0  0  0
   -6.6758   -7.5109   -9.1326 H   0  0  0  0  0  0
   -6.1634   -6.6972   -7.6446 H   0  0  0  0  0  0
   -7.8164   -7.3121   -7.7970 H   0  0  0  0  0  0
   -8.4367   -1.6597  -15.5591 C   0  0  2  0  0  0
   -8.5840   -2.1204  -17.0185 C   0  0  2  0  0  0
  -10.0596   -2.2097  -17.4689 C   0  0  2  0  0  0
  -10.9915   -2.3241  -16.3914 O   0  0  0  0  0  0
  -10.5237   -3.1549  -15.3283 C   0  0  1  0  0  0
   -9.3674   -2.4401  -14.5921 C   0  0  1  0  0  0
  -11.6758   -3.4710  -14.3662 C   0  0  0  0  0  0
   -8.6597   -3.4626  -13.8962 O   0  0  0  0  0  0
  -12.7098   -4.0908  -15.0997 O   0  0  0  0  0  0
   -8.6816   -0.2572  -15.5185 O   0  0  0  0  0  0
   -7.9581   -3.3922  -17.1574 O   0  0  0  0  0  0
   -6.7930   -3.5175  -17.8072 C   0  0  0  0  0  0
   -8.1629    0.4992  -14.5451 C   0  0  0  0  0  0
  -13.8537   -4.4277  -14.4917 C   0  0  0  0  0  0
  -13.9813   -4.5118  -13.2697 O   0  0  0  0  0  0
  -14.9358   -4.7401  -15.4705 C   0  0  0  0  0  0
  -15.7436   -5.8719  -15.2177 C   0  0  0  0  0  0
  -16.7492   -6.2542  -16.1257 C   0  0  0  0  0  0
  -16.9615   -5.5040  -17.2963 C   0  0  0  0  0  0
  -16.1829   -4.3586  -17.5485 C   0  0  0  0  0  0
  -15.1825   -3.9553  -16.6375 C   0  0  0  0  0  0
  -14.4368   -2.6807  -16.9088 C   0  0  0  0  0  0
  -14.4890   -1.7180  -16.1498 O   0  0  0  0  0  0
  -13.5002   -2.8017  -17.8818 O   0  0  0  0  0  0
   -6.1987   -2.6283  -18.4186 O   0  0  0  0  0  0
   -6.2406   -4.9307  -17.7325 C   0  0  0  0  0  0
   -7.5784    0.0859  -13.5455 O   0  0  0  0  0  0
   -8.3884    1.9831  -14.7772 C   0  0  0  0  0  0
   -7.3995   -1.8122  -15.2692 H   0  0  0  0  0  0
   -8.0930   -1.4012  -17.6714 H   0  0  0  0  0  0
  -10.1704   -4.0960  -15.7553 H   0  0  0  0  0  0
   -9.8053   -1.7474  -13.8714 H   0  0  0  0  0  0
  -11.3344   -4.1329  -13.5708 H   0  0  0  0  0  0
  -12.0507   -2.5573  -13.9026 H   0  0  0  0  0  0
  -15.5801   -6.4625  -14.3266 H   0  0  0  0  0  0
  -17.3537   -7.1271  -15.9256 H   0  0  0  0  0  0
  -17.7313   -5.7993  -17.9948 H   0  0  0  0  0  0
  -16.3678   -3.7731  -18.4381 H   0  0  0  0  0  0
  -12.7441   -2.3146  -17.5861 H   0  0  0  0  0  0
   -5.8626   -5.1284  -16.7296 H   0  0  0  0  0  0
   -7.0194   -5.6574  -17.9622 H   0  0  0  0  0  0
   -5.4242   -5.0574  -18.4430 H   0  0  0  0  0  0
   -9.4545    2.2046  -14.8093 H   0  0  0  0  0  0
   -7.9325    2.5657  -13.9770 H   0  0  0  0  0  0
   -7.9382    2.2837  -15.7234 H   0  0  0  0  0  0
  -10.3221   -1.3071  -18.0211 H   0  0  0  0  0  0
    2.8440   -1.3052    6.8128 C   0  0  2  0  0  0
    2.6971   -1.8288    5.3600 C   0  0  2  0  0  0
    1.7351   -0.9234    4.5557 C   0  0  1  0  0  0
    2.1130    0.4128    4.6738 O   0  0  0  0  0  0
    2.0485    0.9589    5.9865 C   0  0  1  0  0  0
    3.0836    0.2118    6.8494 C   0  0  1  0  0  0
    2.4045    2.4582    5.8872 C   0  0  0  0  0  0
    2.9698    0.6335    8.1978 O   0  0  0  0  0  0
    1.4024    3.2446    5.2555 O   0  0  0  0  0  0
    4.0267   -1.8479    7.4053 O   0  0  0  0  0  0
    2.1462   -3.1357    5.4177 O   0  0  0  0  0  0
    4.0176   -3.0583    7.9747 C   0  0  0  0  0  0
    0.3308    3.6493    5.9500 C   0  0  0  0  0  0
    0.0446    3.3038    7.0946 O   0  0  0  0  0  0
   -0.5516    4.6108    5.1695 C   0  0  0  0  0  0
    3.0663   -3.8356    7.9716 O   0  0  0  0  0  0
    5.3462   -3.4187    8.6189 C   0  0  0  0  0  0
    1.9508   -1.5432    7.3942 H   0  0  0  0  0  0
    3.6666   -1.8355    4.8587 H   0  0  0  0  0  0
    0.7094   -1.0434    4.9129 H   0  0  0  0  0  0
    1.0466    0.8288    6.3998 H   0  0  0  0  0  0
    4.0851    0.4405    6.4789 H   0  0  0  0  0  0
    2.5963    2.8646    6.8817 H   0  0  0  0  0  0
    3.3332    2.5764    5.3293 H   0  0  0  0  0  0
    2.4653   -3.5687    6.2065 H   0  0  0  0  0  0
   -0.3591    4.5297    4.0997 H   0  0  0  0  0  0
   -1.6022    4.3869    5.3499 H   0  0  0  0  0  0
   -0.3564    5.6358    5.4819 H   0  0  0  0  0  0
    6.1745   -2.9656    8.0743 H   0  0  0  0  0  0
    5.3720   -3.0684    9.6504 H   0  0  0  0  0  0
    5.4832   -4.5001    8.6178 H   0  0  0  0  0  0
   -0.0752   -0.3873    2.1046 C   0  0  2  0  0  0
   -1.0064   -0.6297    0.8972 C   0  0  2  0  0  0
   -0.2288   -1.3349   -0.2229 C   0  0  1  0  0  0
    0.2308   -2.5486    0.2731 O   0  0  0  0  0  0
    1.2468   -2.4216    1.2640 C   0  0  1  0  0  0
    0.7114   -1.6579    2.4978 C   0  0  1  0  0  0
    1.7098   -3.8367    1.6627 C   0  0  0  0  0  0
    1.8852   -1.2960    3.2230 O   0  0  0  0  0  0
    2.7170   -4.3435    0.7983 O   0  0  0  0  0  0
   -0.8963   -0.0695    3.2268 O   0  0  0  0  0  0
   -1.4461    0.6257    0.3882 O   0  0  0  0  0  0
   -2.7527    0.9102    0.3340 C   0  0  0  0  0  0
   -1.1748    1.2004    3.5352 C   0  0  0  0  0  0
    2.4008   -5.0769   -0.2874 C   0  0  0  0  0  0
    1.2349   -5.2929   -0.6219 O   0  0  0  0  0  0
    3.6255   -5.5999   -1.0026 C   0  0  0  0  0  0
    4.8953   -5.4494   -0.3811 C   0  0  0  0  0  0
    6.0753   -5.9180   -0.9879 C   0  0  0  0  0  0
    6.0181   -6.5477   -2.2404 C   0  0  0  0  0  0
    4.7776   -6.7062   -2.8800 C   0  0  0  0  0  0
    3.5844   -6.2484   -2.2783 C   0  0  0  0  0  0
    2.3159   -6.4588   -3.0453 C   0  0  0  0  0  0
    1.9983   -5.7313   -3.9813 O   0  0  0  0  0  0
    1.5316   -7.4489   -2.5499 O   0  0  0  0  0  0
   -3.6685    0.1722    0.6906 O   0  0  0  0  0  0
   -3.0228    2.2977   -0.2241 C   0  0  0  0  0  0
   -0.7768    2.1942    2.9328 O   0  0  0  0  0  0
   -2.0872    1.3115    4.7453 C   0  0  0  0  0  0
    0.6338    0.4093    1.8715 H   0  0  0  0  0  0
   -1.8286   -1.2859    1.1882 H   0  0  0  0  0  0
    0.6063   -0.7138   -0.5584 H   0  0  0  0  0  0
    2.0916   -1.8706    0.8461 H   0  0  0  0  0  0
    0.0775   -2.3362    3.0734 H   0  0  0  0  0  0
    2.1637   -3.7949    2.6530 H   0  0  0  0  0  0
    0.8631   -4.5193    1.7498 H   0  0  0  0  0  0
    4.9914   -4.9745    0.5845 H   0  0  0  0  0  0
    7.0255   -5.7944   -0.4886 H   0  0  0  0  0  0
    6.9221   -6.9097   -2.7091 H   0  0  0  0  0  0
    4.7383   -7.1908   -3.8459 H   0  0  0  0  0  0
    0.6205   -7.2310   -2.7334 H   0  0  0  0  0  0
   -2.7536    3.0540    0.5129 H   0  0  0  0  0  0
   -2.4399    2.4695   -1.1284 H   0  0  0  0  0  0
   -4.0791    2.4092   -0.4681 H   0  0  0  0  0  0
   -2.8346    0.5186    4.7323 H   0  0  0  0  0  0
   -1.5077    1.2320    5.6645 H   0  0  0  0  0  0
   -2.6036    2.2709    4.7408 H   0  0  0  0  0  0
    0.0798   -2.9162   -2.9063 C   0  0  2  0  0  0
   -0.8092   -3.8637   -3.7283 C   0  0  2  0  0  0
   -1.4617   -3.1646   -4.9423 C   0  0  2  0  0  0
   -1.5285   -1.7416   -4.8284 O   0  0  0  0  0  0
   -1.8334   -1.2964   -3.5062 C   0  0  1  0  0  0
   -0.6241   -1.5707   -2.5830 C   0  0  1  0  0  0
   -2.1829    0.1971   -3.5251 C   0  0  0  0  0  0
   -1.1391   -1.5556   -1.2544 O   0  0  0  0  0  0
   -3.2686    0.3883   -4.4061 O   0  0  0  0  0  0
    1.2932   -2.7232   -3.6267 O   0  0  0  0  0  0
   -1.8190   -4.3922   -2.8742 O   0  0  0  0  0  0
   -1.7755   -5.6678   -2.4662 C   0  0  0  0  0  0
    2.4196   -2.3847   -2.9900 C   0  0  0  0  0  0
   -3.7380    1.6209   -4.6336 C   0  0  0  0  0  0
   -3.4954    2.5902   -3.9137 O   0  0  0  0  0  0
   -4.6303    1.6674   -5.8285 C   0  0  0  0  0  0
   -5.8258    2.4145   -5.7271 C   0  0  0  0  0  0
   -6.7382    2.4592   -6.7983 C   0  0  0  0  0  0
   -6.4618    1.7596   -7.9868 C   0  0  0  0  0  0
   -5.2625    1.0332   -8.1126 C   0  0  0  0  0  0
   -4.3318    0.9942   -7.0517 C   0  0  0  0  0  0
   -3.0305    0.2761   -7.2651 C   0  0  0  0  0  0
   -1.9495    0.8551   -7.2239 O   0  0  0  0  0  0
   -3.1457   -1.0739   -7.2121 O   0  0  0  0  0  0
   -0.9691   -6.5243   -2.8319 O   0  0  0  0  0  0
   -2.8733   -5.9909   -1.4670 C   0  0  0  0  0  0
    2.5103   -2.0681   -1.8055 O   0  0  0  0  0  0
    3.6331   -2.4020   -3.9032 C   0  0  0  0  0  0
    0.3351   -3.4258   -1.9799 H   0  0  0  0  0  0
   -0.2001   -4.6777   -4.1169 H   0  0  0  0  0  0
   -2.7081   -1.8450   -3.1502 H   0  0  0  0  0  0
    0.0854   -0.7508   -2.7062 H   0  0  0  0  0  0
   -2.4502    0.5363   -2.5247 H   0  0  0  0  0  0
   -1.3288    0.7872   -3.8609 H   0  0  0  0  0  0
   -6.0533    2.9458   -4.8131 H   0  0  0  0  0  0
   -7.6531    3.0262   -6.7047 H   0  0  0  0  0  0
   -7.1637    1.7914   -8.8078 H   0  0  0  0  0  0
   -5.0456    0.5178   -9.0377 H   0  0  0  0  0  0
   -2.3913   -1.3872   -6.7334 H   0  0  0  0  0  0
   -2.6473   -5.5296   -0.5059 H   0  0  0  0  0  0
   -3.8329   -5.6133   -1.8191 H   0  0  0  0  0  0
   -2.9527   -7.0684   -1.3253 H   0  0  0  0  0  0
    3.5073   -1.6868   -4.7153 H   0  0  0  0  0  0
    4.5322   -2.1440   -3.3441 H   0  0  0  0  0  0
    3.7639   -3.3972   -4.3283 H   0  0  0  0  0  0
   -0.8811   -3.3844   -5.8385 H   0  0  0  0  0  0
   10.3014    5.3802   18.4145 C   0  0  2  0  0  0
    9.3572    4.4375   17.6230 C   0  0  2  0  0  0
    9.6583    4.5211   16.1083 C   0  0  1  0  0  0
   11.0196    4.3384   15.8729 O   0  0  0  0  0  0
   11.8803    5.3266   16.4281 C   0  0  1  0  0  0
   11.7620    5.2339   17.9616 C   0  0  1  0  0  0
   13.3198    5.0017   15.9734 C   0  0  0  0  0  0
   12.5053    6.2825   18.5587 O   0  0  0  0  0  0
   13.5512    5.2380   14.5906 O   0  0  0  0  0  0
   10.3338    4.9893   19.7895 O   0  0  0  0  0  0
    8.0223    4.8666   17.8434 O   0  0  0  0  0  0
    9.3975    5.4111   20.6467 C   0  0  0  0  0  0
   13.8025    6.4798   14.1554 C   0  0  0  0  0  0
   13.7378    7.5044   14.8315 O   0  0  0  0  0  0
   14.1853    6.5251   12.6844 C   0  0  0  0  0  0
    8.4068    6.0718   20.3451 O   0  0  0  0  0  0
    9.6542    4.9556   22.0738 C   0  0  0  0  0  0
    9.9888    6.4195   18.2934 H   0  0  0  0  0  0
    9.4936    3.4040   17.9467 H   0  0  0  0  0  0
    9.3479    5.4902   15.7101 H   0  0  0  0  0  0
   11.5843    6.3197   16.0849 H   0  0  0  0  0  0
   12.1600    4.2714   18.2901 H   0  0  0  0  0  0
   14.0369    5.5836   16.5550 H   0  0  0  0  0  0
   13.5410    3.9553   16.1825 H   0  0  0  0  0  0
    7.9544    5.2156   18.7295 H   0  0  0  0  0  0
   13.8563    5.6212   12.1718 H   0  0  0  0  0  0
   13.7214    7.3845   12.2020 H   0  0  0  0  0  0
   15.2662    6.6104   12.5811 H   0  0  0  0  0  0
   10.1537    3.9869   22.0856 H   0  0  0  0  0  0
   10.2817    5.6794   22.5932 H   0  0  0  0  0  0
    8.7120    4.8645   22.6143 H   0  0  0  0  0  0
    8.8897    4.0079   13.1556 C   0  0  2  0  0  0
    8.0391    3.7846   11.8866 C   0  0  2  0  0  0
    7.3026    2.4414   11.9867 C   0  0  1  0  0  0
    6.4817    2.4853   13.1067 O   0  0  0  0  0  0
    7.1894    2.4943   14.3434 C   0  0  1  0  0  0
    8.0844    3.7513   14.4493 C   0  0  1  0  0  0
    6.1580    2.4666   15.4884 C   0  0  0  0  0  0
    8.9750    3.4583   15.5242 O   0  0  0  0  0  0
    5.7450    1.1476   15.8171 O   0  0  0  0  0  0
    9.2617    5.3845   13.1900 O   0  0  0  0  0  0
    8.9001    3.7173   10.7541 O   0  0  0  0  0  0
    8.7534    4.5831    9.7442 C   0  0  0  0  0  0
   10.4228    5.7943   12.6712 C   0  0  0  0  0  0
    4.6669    0.5877   15.2330 C   0  0  0  0  0  0
    4.0255    1.1561   14.3480 O   0  0  0  0  0  0
    4.3477   -0.7746   15.8050 C   0  0  0  0  0  0
    5.0445   -1.2078   16.9661 C   0  0  0  0  0  0
    4.7930   -2.4613   17.5542 C   0  0  0  0  0  0
    3.8377   -3.3214   16.9920 C   0  0  0  0  0  0
    3.1371   -2.9214   15.8421 C   0  0  0  0  0  0
    3.3734   -1.6625   15.2465 C   0  0  0  0  0  0
    2.5800   -1.3346   14.0199 C   0  0  0  0  0  0
    2.8728   -1.7920   12.9193 O   0  0  0  0  0  0
    1.5913   -0.4296   14.2301 O   0  0  0  0  0  0
    7.9140    5.4783    9.6756 O   0  0  0  0  0  0
    9.7707    4.3623    8.6369 C   0  0  0  0  0  0
   11.2686    5.0800   12.1387 O   0  0  0  0  0  0
   10.6055    7.2984   12.7872 C   0  0  0  0  0  0
    9.7568    3.3449   13.1417 H   0  0  0  0  0  0
    7.2828    4.5672   11.8040 H   0  0  0  0  0  0
    8.0179    1.6180   12.0644 H   0  0  0  0  0  0
    7.8198    1.6050   14.4049 H   0  0  0  0  0  0
    7.4473    4.6085   14.6784 H   0  0  0  0  0  0
    6.6205    2.8653   16.3914 H   0  0  0  0  0  0
    5.3107    3.1194   15.2726 H   0  0  0  0  0  0
    5.7869   -0.5808   17.4381 H   0  0  0  0  0  0
    5.3345   -2.7609   18.4400 H   0  0  0  0  0  0
    3.6412   -4.2844   17.4413 H   0  0  0  0  0  0
    2.4028   -3.5880   15.4111 H   0  0  0  0  0  0
    1.4641    0.0691   13.4260 H   0  0  0  0  0  0
   10.7535    4.7034    8.9613 H   0  0  0  0  0  0
    9.8363    3.3057    8.3789 H   0  0  0  0  0  0
    9.4859    4.9184    7.7439 H   0  0  0  0  0  0
    9.6584    7.8107   12.6196 H   0  0  0  0  0  0
   10.9745    7.5592   13.7786 H   0  0  0  0  0  0
   11.3222    7.6492   12.0452 H   0  0  0  0  0  0
    5.1735    0.3008   11.1618 C   0  0  2  0  0  0
    3.8074    0.3290   10.4571 C   0  0  2  0  0  0
    3.8934   -0.0963    8.9739 C   0  0  2  0  0  0
    5.1999    0.0260    8.4078 O   0  0  0  0  0  0
    5.9000    1.1881    8.8533 C   0  0  1  0  0  0
    6.2809    1.0160   10.3417 C   0  0  1  0  0  0
    7.1475    1.4104    7.9888 C   0  0  0  0  0  0
    6.5294    2.3303   10.8330 O   0  0  0  0  0  0
    6.7402    1.5276    6.6429 O   0  0  0  0  0  0
    5.5000   -1.0606   11.4242 O   0  0  0  0  0  0
    3.2757    1.6469   10.5523 O   0  0  0  0  0  0
    2.2488    1.9162   11.3697 C   0  0  0  0  0  0
    6.3293   -1.3843   12.4223 C   0  0  0  0  0  0
    7.6540    1.6839    5.6774 C   0  0  0  0  0  0
    8.8175    2.0302    5.8847 O   0  0  0  0  0  0
    7.0811    1.4414    4.3212 C   0  0  0  0  0  0
    7.4333    2.3402    3.2889 C   0  0  0  0  0  0
    6.8890    2.2008    1.9981 C   0  0  0  0  0  0
    5.9884    1.1559    1.7240 C   0  0  0  0  0  0
    5.6489    0.2367    2.7348 C   0  0  0  0  0  0
    6.2008    0.3559    4.0288 C   0  0  0  0  0  0
    5.8738   -0.6970    5.0480 C   0  0  0  0  0  0
    6.7341   -1.4194    5.5415 O   0  0  0  0  0  0
    4.6282   -0.5731    5.5692 O   0  0  0  0  0  0
    1.6039    1.0972   12.0263 O   0  0  0  0  0  0
    1.9200    3.3987   11.4128 C   0  0  0  0  0  0
    6.9902   -0.5950   13.0945 O   0  0  0  0  0  0
    6.4084   -2.8836   12.6514 C   0  0  0  0  0  0
    5.0572    0.7935   12.1245 H   0  0  0  0  0  0
    3.1355   -0.3698   10.9520 H   0  0  0  0  0  0
    5.2448    2.0536    8.7323 H   0  0  0  0  0  0
    7.2014    0.4317   10.3875 H   0  0  0  0  0  0
    7.6684    2.3151    8.3010 H   0  0  0  0  0  0
    7.8401    0.5737    8.0917 H   0  0  0  0  0  0
    8.1155    3.1543    3.4926 H   0  0  0  0  0  0
    7.1590    2.9002    1.2200 H   0  0  0  0  0  0
    5.5682    1.0508    0.7339 H   0  0  0  0  0  0
    4.9749   -0.5780    2.5104 H   0  0  0  0  0  0
    4.7081   -0.7499    6.4959 H   0  0  0  0  0  0
    2.6874    3.9326   11.9729 H   0  0  0  0  0  0
    1.8742    3.8088   10.4042 H   0  0  0  0  0  0
    0.9585    3.5605   11.8994 H   0  0  0  0  0  0
    6.7835   -3.3846   11.7597 H   0  0  0  0  0  0
    7.0741   -3.1053   13.4851 H   0  0  0  0  0  0
    5.4187   -3.2764   12.8852 H   0  0  0  0  0  0
    3.6049   -1.1437    8.8830 H   0  0  0  0  0  0
   21.9893    8.5399   27.8121 C   0  0  2  0  0  0
   20.6199    8.6284   27.0884 C   0  0  2  0  0  0
   20.3430    7.3278   26.2985 C   0  0  1  0  0  0
   20.5139    6.2150   27.1198 O   0  0  0  0  0  0
   21.8307    6.0141   27.6211 C   0  0  1  0  0  0
   22.1592    7.2014   28.5465 C   0  0  1  0  0  0
   21.8315    4.6896   28.4152 C   0  0  0  0  0  0
   23.5082    7.1117   28.9720 O   0  0  0  0  0  0
   21.7111    3.5318   27.5988 O   0  0  0  0  0  0
   22.0456    9.5098   28.8611 O   0  0  0  0  0  0
   20.6765    9.7109   26.1721 O   0  0  0  0  0  0
   22.4003   10.7749   28.6098 C   0  0  0  0  0  0
   22.7873    3.0386   26.9718 C   0  0  0  0  0  0
   23.8967    3.5663   26.9269 O   0  0  0  0  0  0
   22.5127    1.7131   26.2789 C   0  0  0  0  0  0
   22.6173   11.2418   27.4945 O   0  0  0  0  0  0
   22.4799   11.6272   29.8658 C   0  0  0  0  0  0
   22.8052    8.6650   27.0971 H   0  0  0  0  0  0
   19.8160    8.7715   27.8127 H   0  0  0  0  0  0
   21.0148    7.2520   25.4400 H   0  0  0  0  0  0
   22.5446    5.9678   26.7967 H   0  0  0  0  0  0
   21.4993    7.1663   29.4159 H   0  0  0  0  0  0
   22.7440    4.6090   29.0085 H   0  0  0  0  0  0
   21.0076    4.6915   29.1285 H   0  0  0  0  0  0
   21.2323   10.3950   26.5391 H   0  0  0  0  0  0
   21.4435    1.5757   26.1181 H   0  0  0  0  0  0
   23.0145    1.6835   25.3126 H   0  0  0  0  0  0
   22.8822    0.8888   26.8875 H   0  0  0  0  0  0
   21.7519   11.2935   30.6052 H   0  0  0  0  0  0
   23.4764   11.5632   30.3019 H   0  0  0  0  0  0
   22.2742   12.6704   29.6255 H   0  0  0  0  0  0
   18.7847    5.7355   24.1517 C   0  0  2  0  0  0
   17.9576    5.4119   22.8889 C   0  0  2  0  0  0
   16.5467    6.0004   23.0293 C   0  0  1  0  0  0
   16.6693    7.3765   23.1767 O   0  0  0  0  0  0
   17.2497    7.7768   24.4149 C   0  0  1  0  0  0
   18.6896    7.2271   24.5440 C   0  0  1  0  0  0
   17.2518    9.3171   24.4698 C   0  0  0  0  0  0
   19.0029    7.3854   25.9265 O   0  0  0  0  0  0
   16.0261    9.8460   24.9561 O   0  0  0  0  0  0
   20.1566    5.4964   23.8429 O   0  0  0  0  0  0
   17.8221    3.9991   22.7697 O   0  0  0  0  0  0
   18.2700    3.3694   21.6771 C   0  0  0  0  0  0
   20.7235    4.3157   24.1073 C   0  0  0  0  0  0
   15.0254   10.1751   24.1152 C   0  0  0  0  0  0
   15.0921    9.9797   22.9007 O   0  0  0  0  0  0
   13.8594   10.8145   24.8341 C   0  0  0  0  0  0
   14.0126   11.1698   26.2021 C   0  0  0  0  0  0
   12.9705   11.7733   26.9301 C   0  0  0  0  0  0
   11.7399   12.0343   26.3088 C   0  0  0  0  0  0
   11.5586   11.6899   24.9591 C   0  0  0  0  0  0
   12.5990   11.0915   24.2143 C   0  0  0  0  0  0
   12.3020   10.7563   22.7856 C   0  0  0  0  0  0
   11.6520    9.7622   22.4765 O   0  0  0  0  0  0
   12.8913   11.5895   21.8914 O   0  0  0  0  0  0
   18.8132    3.8981   20.7097 O   0  0  0  0  0  0
   18.0489    1.8672   21.7403 C   0  0  0  0  0  0
   20.1708    3.3486   24.6255 O   0  0  0  0  0  0
   22.1787    4.2661   23.6724 C   0  0  0  0  0  0
   18.4367    5.1271   24.9885 H   0  0  0  0  0  0
   18.4192    5.8734   22.0142 H   0  0  0  0  0  0
   16.0343    5.5640   23.8911 H   0  0  0  0  0  0
   16.6474    7.3878   25.2382 H   0  0  0  0  0  0
   19.3457    7.8303   23.9124 H   0  0  0  0  0  0
   18.0157    9.6453   25.1747 H   0  0  0  0  0  0
   17.5294    9.7463   23.5058 H   0  0  0  0  0  0
   14.9416   10.9925   26.7242 H   0  0  0  0  0  0
   13.1184   12.0374   27.9673 H   0  0  0  0  0  0
   10.9376   12.4985   26.8644 H   0  0  0  0  0  0
   10.6080   11.8914   24.4846 H   0  0  0  0  0  0
   13.0715   11.0961   21.0942 H   0  0  0  0  0  0
   18.7466    1.4179   22.4467 H   0  0  0  0  0  0
   17.0329    1.6403   22.0621 H   0  0  0  0  0  0
   18.2084    1.4188   20.7598 H   0  0  0  0  0  0
   22.3129    4.7999   22.7318 H   0  0  0  0  0  0
   22.8153    4.7234   24.4290 H   0  0  0  0  0  0
   22.4941    3.2330   23.5296 H   0  0  0  0  0  0
   13.7259    6.8916   22.0072 C   0  0  2  0  0  0
   13.1384    7.3310   20.6561 C   0  0  2  0  0  0
   12.3441    6.2045   19.9573 C   0  0  2  0  0  0
   12.6792    4.8901   20.4074 O   0  0  0  0  0  0
   14.0742    4.7207   20.6618 C   0  0  1  0  0  0
   14.4662    5.5298   21.9195 C   0  0  1  0  0  0
   14.3953    3.2318   20.8439 C   0  0  0  0  0  0
   15.8781    5.7058   21.8429 O   0  0  0  0  0  0
   13.9871    2.5439   19.6814 O   0  0  0  0  0  0
   12.6628    6.8602   22.9546 O   0  0  0  0  0  0
   14.2054    7.7626   19.8171 O   0  0  0  0  0  0
   14.3830    9.0625   19.5450 C   0  0  0  0  0  0
   12.9074    7.0057   24.2614 C   0  0  0  0  0  0
   14.1193    1.2139   19.6085 C   0  0  0  0  0  0
   14.8413    0.5550   20.3576 O   0  0  0  0  0  0
   13.3319    0.6350   18.4810 C   0  0  0  0  0  0
   13.9519   -0.3569   17.6879 C   0  0  0  0  0  0
   13.2859   -0.9090   16.5773 C   0  0  0  0  0  0
   11.9878   -0.4775   16.2502 C   0  0  0  0  0  0
   11.3468    0.4902   17.0467 C   0  0  0  0  0  0
   11.9977    1.0394   18.1727 C   0  0  0  0  0  0
   11.2412    2.0051   19.0385 C   0  0  0  0  0  0
   10.9854    1.7672   20.2148 O   0  0  0  0  0  0
   11.1349    3.2438   18.4974 O   0  0  0  0  0  0
   13.6384    9.9862   19.8766 O   0  0  0  0  0  0
   15.6448    9.3151   18.7376 C   0  0  0  0  0  0
   14.0180    7.0283   24.7882 O   0  0  0  0  0  0
   11.6354    7.1224   25.0830 C   0  0  0  0  0  0
   14.4203    7.6638   22.3306 H   0  0  0  0  0  0
   12.4478    8.1565   20.8182 H   0  0  0  0  0  0
   14.6300    5.0841   19.7947 H   0  0  0  0  0  0
   14.2229    4.9270   22.7960 H   0  0  0  0  0  0
   15.4639    3.0916   21.0043 H   0  0  0  0  0  0
   13.8715    2.8293   21.7122 H   0  0  0  0  0  0
   14.9546   -0.6866   17.9237 H   0  0  0  0  0  0
   13.7746   -1.6599   15.9732 H   0  0  0  0  0  0
   11.4778   -0.8991   15.3958 H   0  0  0  0  0  0
   10.3400    0.7994   16.8035 H   0  0  0  0  0  0
   11.2689    3.8569   19.2064 H   0  0  0  0  0  0
   16.5223    9.1843   19.3705 H   0  0  0  0  0  0
   15.7090    8.6183   17.9023 H   0  0  0  0  0  0
   15.6475   10.3317   18.3454 H   0  0  0  0  0  0
   11.0314    6.2219   24.9775 H   0  0  0  0  0  0
   11.8760    7.2624   26.1366 H   0  0  0  0  0  0
   11.0519    7.9788   24.7448 H   0  0  0  0  0  0
   11.2798    6.3435   20.1480 H   0  0  0  0  0  0
   23.7055    7.8742   29.5210 H   0  0  0  0  0  0
  -23.0074   -4.9605  -25.9371 H   0  0  0  0  0  0
  1 81  1  0  0  0
  2  3  1  0  0  0
  2  7  1  0  0  0
  2 11  1  0  0  0
  2 19  1  0  0  0
  3  4  1  0  0  0
  3 12  1  0  0  0
  3 20  1  0  0  0
  4  5  1  0  0  0
  4 21  1  0  0  0
  4 40  1  0  0  0
  5  6  1  0  0  0
  6  7  1  0  0  0
  6  8  1  0  0  0
  6 22  1  0  0  0
  7  9  1  0  0  0
  7 23  1  0  0  0
  8 10  1  0  0  0
  8 24  1  0  0  0
  8 25  1  0  0  0
  9204  1  0  0  0
 10 14  1  0  0  0
 11 13  1  0  0  0
 12 26  1  0  0  0
 13 17  2  0  0  0
 13 18  1  0  0  0
 14 15  2  0  0  0
 14 16  1  0  0  0
 16 27  1  0  0  0
 16 28  1  0  0  0
 16 29  1  0  0  0
 18 30  1  0  0  0
 18 31  1  0  0  0
 18 32  1  0  0  0
 33 34  1  0  0  0
 33 38  1  0  0  0
 33 42  1  0  0  0
 33 61  1  0  0  0
 34 35  1  0  0  0
 34 43  1  0  0  0
 34 62  1  0  0  0
 35 36  1  0  0  0
 35 63  1  0  0  0
 35 86  1  0  0  0
 36 37  1  0  0  0
 37 38  1  0  0  0
 37 39  1  0  0  0
 37 64  1  0  0  0
 38 40  1  0  0  0
 38 65  1  0  0  0
 39 41  1  0  0  0
 39 66  1  0  0  0
 39 67  1  0  0  0
 41 46  1  0  0  0
 42 45  1  0  0  0
 43 44  1  0  0  0
 44 57  2  0  0  0
 44 58  1  0  0  0
 45 59  2  0  0  0
 45 60  1  0  0  0
 46 47  2  0  0  0
 46 48  1  0  0  0
 48 49  2  0  0  0
 48 53  1  0  0  0
 49 50  1  0  0  0
 49 68  1  0  0  0
 50 51  2  0  0  0
 50 69  1  0  0  0
 51 52  1  0  0  0
 51 70  1  0  0  0
 52 53  2  0  0  0
 52 71  1  0  0  0
 53 54  1  0  0  0
 54 55  2  0  0  0
 54 56  1  0  0  0
 56 72  1  0  0  0
 58 73  1  0  0  0
 58 74  1  0  0  0
 58 75  1  0  0  0
 60 76  1  0  0  0
 60 77  1  0  0  0
 60 78  1  0  0  0
 79 80  1  0  0  0
 79 84  1  0  0  0
 79 88  1  0  0  0
 79107  1  0  0  0
 80 81  1  0  0  0
 80 89  1  0  0  0
 80108  1  0  0  0
 81 82  1  0  0  0
 81124  1  0  0  0
 82 83  1  0  0  0
 83 84  1  0  0  0
 83 85  1  0  0  0
 83109  1  0  0  0
 84 86  1  0  0  0
 84110  1  0  0  0
 85 87  1  0  0  0
 85111  1  0  0  0
 85112  1  0  0  0
 87 92  1  0  0  0
 88 91  1  0  0  0
 89 90  1  0  0  0
 90103  2  0  0  0
 90104  1  0  0  0
 91105  2  0  0  0
 91106  1  0  0  0
 92 93  2  0  0  0
 92 94  1  0  0  0
 94 95  2  0  0  0
 94 99  1  0  0  0
 95 96  1  0  0  0
 95113  1  0  0  0
 96 97  2  0  0  0
 96114  1  0  0  0
 97 98  1  0  0  0
 97115  1  0  0  0
 98 99  2  0  0  0
 98116  1  0  0  0
 99100  1  0  0  0
100101  2  0  0  0
100102  1  0  0  0
102117  1  0  0  0
104118  1  0  0  0
104119  1  0  0  0
104120  1  0  0  0
106121  1  0  0  0
106122  1  0  0  0
106123  1  0  0  0
124618  1  0  0  0
125126  1  0  0  0
125130  1  0  0  0
125134  1  0  0  0
125142  1  0  0  0
126127  1  0  0  0
126135  1  0  0  0
126143  1  0  0  0
127128  1  0  0  0
127144  1  0  0  0
127163  1  0  0  0
128129  1  0  0  0
129130  1  0  0  0
129131  1  0  0  0
129145  1  0  0  0
130132  1  0  0  0
130146  1  0  0  0
131133  1  0  0  0
131147  1  0  0  0
131148  1  0  0  0
132327  1  0  0  0
133137  1  0  0  0
134136  1  0  0  0
135149  1  0  0  0
136140  2  0  0  0
136141  1  0  0  0
137138  2  0  0  0
137139  1  0  0  0
139150  1  0  0  0
139151  1  0  0  0
139152  1  0  0  0
141153  1  0  0  0
141154  1  0  0  0
141155  1  0  0  0
156157  1  0  0  0
156161  1  0  0  0
156165  1  0  0  0
156184  1  0  0  0
157158  1  0  0  0
157166  1  0  0  0
157185  1  0  0  0
158159  1  0  0  0
158186  1  0  0  0
158209  1  0  0  0
159160  1  0  0  0
160161  1  0  0  0
160162  1  0  0  0
160187  1  0  0  0
161163  1  0  0  0
161188  1  0  0  0
162164  1  0  0  0
162189  1  0  0  0
162190  1  0  0  0
164169  1  0  0  0
165168  1  0  0  0
166167  1  0  0  0
167180  2  0  0  0
167181  1  0  0  0
168182  2  0  0  0
168183  1  0  0  0
169170  2  0  0  0
169171  1  0  0  0
171172  2  0  0  0
171176  1  0  0  0
172173  1  0  0  0
172191  1  0  0  0
173174  2  0  0  0
173192  1  0  0  0
174175  1  0  0  0
174193  1  0  0  0
175176  2  0  0  0
175194  1  0  0  0
176177  1  0  0  0
177178  2  0  0  0
177179  1  0  0  0
179195  1  0  0  0
181196  1  0  0  0
181197  1  0  0  0
181198  1  0  0  0
183199  1  0  0  0
183200  1  0  0  0
183201  1  0  0  0
202203  1  0  0  0
202207  1  0  0  0
202211  1  0  0  0
202230  1  0  0  0
203204  1  0  0  0
203212  1  0  0  0
203231  1  0  0  0
204205  1  0  0  0
204247  1  0  0  0
205206  1  0  0  0
206207  1  0  0  0
206208  1  0  0  0
206232  1  0  0  0
207209  1  0  0  0
207233  1  0  0  0
208210  1  0  0  0
208234  1  0  0  0
208235  1  0  0  0
210215  1  0  0  0
211214  1  0  0  0
212213  1  0  0  0
213226  2  0  0  0
213227  1  0  0  0
214228  2  0  0  0
214229  1  0  0  0
215216  2  0  0  0
215217  1  0  0  0
217218  2  0  0  0
217222  1  0  0  0
218219  1  0  0  0
218236  1  0  0  0
219220  2  0  0  0
219237  1  0  0  0
220221  1  0  0  0
220238  1  0  0  0
221222  2  0  0  0
221239  1  0  0  0
222223  1  0  0  0
223224  2  0  0  0
223225  1  0  0  0
225240  1  0  0  0
227241  1  0  0  0
227242  1  0  0  0
227243  1  0  0  0
229244  1  0  0  0
229245  1  0  0  0
229246  1  0  0  0
248249  1  0  0  0
248253  1  0  0  0
248257  1  0  0  0
248265  1  0  0  0
249250  1  0  0  0
249258  1  0  0  0
249266  1  0  0  0
250251  1  0  0  0
250267  1  0  0  0
250286  1  0  0  0
251252  1  0  0  0
252253  1  0  0  0
252254  1  0  0  0
252268  1  0  0  0
253255  1  0  0  0
253269  1  0  0  0
254256  1  0  0  0
254270  1  0  0  0
254271  1  0  0  0
255450  1  0  0  0
256260  1  0  0  0
257259  1  0  0  0
258272  1  0  0  0
259263  2  0  0  0
259264  1  0  0  0
260261  2  0  0  0
260262  1  0  0  0
262273  1  0  0  0
262274  1  0  0  0
262275  1  0  0  0
264276  1  0  0  0
264277  1  0  0  0
264278  1  0  0  0
279280  1  0  0  0
279284  1  0  0  0
279288  1  0  0  0
279307  1  0  0  0
280281  1  0  0  0
280289  1  0  0  0
280308  1  0  0  0
281282  1  0  0  0
281309  1  0  0  0
281332  1  0  0  0
282283  1  0  0  0
283284  1  0  0  0
283285  1  0  0  0
283310  1  0  0  0
284286  1  0  0  0
284311  1  0  0  0
285287  1  0  0  0
285312  1  0  0  0
285313  1  0  0  0
287292  1  0  0  0
288291  1  0  0  0
289290  1  0  0  0
290303  2  0  0  0
290304  1  0  0  0
291305  2  0  0  0
291306  1  0  0  0
292293  2  0  0  0
292294  1  0  0  0
294295  2  0  0  0
294299  1  0  0  0
295296  1  0  0  0
295314  1  0  0  0
296297  2  0  0  0
296315  1  0  0  0
297298  1  0  0  0
297316  1  0  0  0
298299  2  0  0  0
298317  1  0  0  0
299300  1  0  0  0
300301  2  0  0  0
300302  1  0  0  0
302318  1  0  0  0
304319  1  0  0  0
304320  1  0  0  0
304321  1  0  0  0
306322  1  0  0  0
306323  1  0  0  0
306324  1  0  0  0
325326  1  0  0  0
325330  1  0  0  0
325334  1  0  0  0
325353  1  0  0  0
326327  1  0  0  0
326335  1  0  0  0
326354  1  0  0  0
327328  1  0  0  0
327370  1  0  0  0
328329  1  0  0  0
329330  1  0  0  0
329331  1  0  0  0
329355  1  0  0  0
330332  1  0  0  0
330356  1  0  0  0
331333  1  0  0  0
331357  1  0  0  0
331358  1  0  0  0
333338  1  0  0  0
334337  1  0  0  0
335336  1  0  0  0
336349  2  0  0  0
336350  1  0  0  0
337351  2  0  0  0
337352  1  0  0  0
338339  2  0  0  0
338340  1  0  0  0
340341  2  0  0  0
340345  1  0  0  0
341342  1  0  0  0
341359  1  0  0  0
342343  2  0  0  0
342360  1  0  0  0
343344  1  0  0  0
343361  1  0  0  0
344345  2  0  0  0
344362  1  0  0  0
345346  1  0  0  0
346347  2  0  0  0
346348  1  0  0  0
348363  1  0  0  0
350364  1  0  0  0
350365  1  0  0  0
350366  1  0  0  0
352367  1  0  0  0
352368  1  0  0  0
352369  1  0  0  0
371372  1  0  0  0
371376  1  0  0  0
371380  1  0  0  0
371388  1  0  0  0
372373  1  0  0  0
372381  1  0  0  0
372389  1  0  0  0
373374  1  0  0  0
373390  1  0  0  0
373409  1  0  0  0
374375  1  0  0  0
375376  1  0  0  0
375377  1  0  0  0
375391  1  0  0  0
376378  1  0  0  0
376392  1  0  0  0
377379  1  0  0  0
377393  1  0  0  0
377394  1  0  0  0
378573  1  0  0  0
379383  1  0  0  0
380382  1  0  0  0
381395  1  0  0  0
382386  2  0  0  0
382387  1  0  0  0
383384  2  0  0  0
383385  1  0  0  0
385396  1  0  0  0
385397  1  0  0  0
385398  1  0  0  0
387399  1  0  0  0
387400  1  0  0  0
387401  1  0  0  0
402403  1  0  0  0
402407  1  0  0  0
402411  1  0  0  0
402430  1  0  0  0
403404  1  0  0  0
403412  1  0  0  0
403431  1  0  0  0
404405  1  0  0  0
404432  1  0  0  0
404455  1  0  0  0
405406  1  0  0  0
406407  1  0  0  0
406408  1  0  0  0
406433  1  0  0  0
407409  1  0  0  0
407434  1  0  0  0
408410  1  0  0  0
408435  1  0  0  0
408436  1  0  0  0
410415  1  0  0  0
411414  1  0  0  0
412413  1  0  0  0
413426  2  0  0  0
413427  1  0  0  0
414428  2  0  0  0
414429  1  0  0  0
415416  2  0  0  0
415417  1  0  0  0
417418  2  0  0  0
417422  1  0  0  0
418419  1  0  0  0
418437  1  0  0  0
419420  2  0  0  0
419438  1  0  0  0
420421  1  0  0  0
420439  1  0  0  0
421422  2  0  0  0
421440  1  0  0  0
422423  1  0  0  0
423424  2  0  0  0
423425  1  0  0  0
425441  1  0  0  0
427442  1  0  0  0
427443  1  0  0  0
427444  1  0  0  0
429445  1  0  0  0
429446  1  0  0  0
429447  1  0  0  0
448449  1  0  0  0
448453  1  0  0  0
448457  1  0  0  0
448476  1  0  0  0
449450  1  0  0  0
449458  1  0  0  0
449477  1  0  0  0
450451  1  0  0  0
450493  1  0  0  0
451452  1  0  0  0
452453  1  0  0  0
452454  1  0  0  0
452478  1  0  0  0
453455  1  0  0  0
453479  1  0  0  0
454456  1  0  0  0
454480  1  0  0  0
454481  1  0  0  0
456461  1  0  0  0
457460  1  0  0  0
458459  1  0  0  0
459472  2  0  0  0
459473  1  0  0  0
460474  2  0  0  0
460475  1  0  0  0
461462  2  0  0  0
461463  1  0  0  0
463464  2  0  0  0
463468  1  0  0  0
464465  1  0  0  0
464482  1  0  0  0
465466  2  0  0  0
465483  1  0  0  0
466467  1  0  0  0
466484  1  0  0  0
467468  2  0  0  0
467485  1  0  0  0
468469  1  0  0  0
469470  2  0  0  0
469471  1  0  0  0
471486  1  0  0  0
473487  1  0  0  0
473488  1  0  0  0
473489  1  0  0  0
475490  1  0  0  0
475491  1  0  0  0
475492  1  0  0  0
494495  1  0  0  0
494499  1  0  0  0
494503  1  0  0  0
494511  1  0  0  0
495496  1  0  0  0
495504  1  0  0  0
495512  1  0  0  0
496497  1  0  0  0
496513  1  0  0  0
496532  1  0  0  0
497498  1  0  0  0
498499  1  0  0  0
498500  1  0  0  0
498514  1  0  0  0
499501  1  0  0  0
499515  1  0  0  0
500502  1  0  0  0
500516  1  0  0  0
500517  1  0  0  0
501617  1  0  0  0
502506  1  0  0  0
503505  1  0  0  0
504518  1  0  0  0
505509  2  0  0  0
505510  1  0  0  0
506507  2  0  0  0
506508  1  0  0  0
508519  1  0  0  0
508520  1  0  0  0
508521  1  0  0  0
510522  1  0  0  0
510523  1  0  0  0
510524  1  0  0  0
525526  1  0  0  0
525530  1  0  0  0
525534  1  0  0  0
525553  1  0  0  0
526527  1  0  0  0
526535  1  0  0  0
526554  1  0  0  0
527528  1  0  0  0
527555  1  0  0  0
527578  1  0  0  0
528529  1  0  0  0
529530  1  0  0  0
529531  1  0  0  0
529556  1  0  0  0
530532  1  0  0  0
530557  1  0  0  0
531533  1  0  0  0
531558  1  0  0  0
531559  1  0  0  0
533538  1  0  0  0
534537  1  0  0  0
535536  1  0  0  0
536549  2  0  0  0
536550  1  0  0  0
537551  2  0  0  0
537552  1  0  0  0
538539  2  0  0  0
538540  1  0  0  0
540541  2  0  0  0
540545  1  0  0  0
541542  1  0  0  0
541560  1  0  0  0
542543  2  0  0  0
542561  1  0  0  0
543544  1  0  0  0
543562  1  0  0  0
544545  2  0  0  0
544563  1  0  0  0
545546  1  0  0  0
546547  2  0  0  0
546548  1  0  0  0
548564  1  0  0  0
550565  1  0  0  0
550566  1  0  0  0
550567  1  0  0  0
552568  1  0  0  0
552569  1  0  0  0
552570  1  0  0  0
571572  1  0  0  0
571576  1  0  0  0
571580  1  0  0  0
571599  1  0  0  0
572573  1  0  0  0
572581  1  0  0  0
572600  1  0  0  0
573574  1  0  0  0
573616  1  0  0  0
574575  1  0  0  0
575576  1  0  0  0
575577  1  0  0  0
575601  1  0  0  0
576578  1  0  0  0
576602  1  0  0  0
577579  1  0  0  0
577603  1  0  0  0
577604  1  0  0  0
579584  1  0  0  0
580583  1  0  0  0
581582  1  0  0  0
582595  2  0  0  0
582596  1  0  0  0
583597  2  0  0  0
583598  1  0  0  0
584585  2  0  0  0
584586  1  0  0  0
586587  2  0  0  0
586591  1  0  0  0
587588  1  0  0  0
587605  1  0  0  0
588589  2  0  0  0
588606  1  0  0  0
589590  1  0  0  0
589607  1  0  0  0
590591  2  0  0  0
590608  1  0  0  0
591592  1  0  0  0
592593  2  0  0  0
592594  1  0  0  0
594609  1  0  0  0
596610  1  0  0  0
596611  1  0  0  0
596612  1  0  0  0
598613  1  0  0  0
598614  1  0  0  0
598615  1  0  0  0
M  END
> <i_f3d_flags>
0

> <i_matsci_highest_rx_xval>
1

> <b_m_subgroup_collapsed>
0

> <r_f3d_energy>
0

> <s_m_Source_File>
polymer_builder_2_5UNITS_5-polymer.maegz

> <s_m_Source_Path>
C:\Users\sanapd\OneDrive - Bristol Myers Squibb\Documents\SDD\StructureBuilding\CAP\polymer_builder_2_5UNITS_5

> <s_m_entry_id>
7

> <s_m_entry_name>
polymer_builder_2_5UNITS_5.1

> <s_m_job_name>
polymer_builder_2_5UNITS_5

> <s_m_subgroup_title>
polymer_builder_2_5UNITS_5-polymer

> <s_m_subgroupid>
polymer_builder_2_5UNITS_5-polymer

> <s_matsci_name_of_monomer_A>
CAPTrimerpolymer

> <s_matsci_polymer_composition>
A5

> <s_matsci_polymer_gui_marker_list>
2

> <s_matsci_polymer_gui_moiety>
Initiator

> <s_matsci_polymer_sequence>
AAAAA

> <s_matsci_rx_marker_atom_1>
2

$$$$
